66087
  -OEChem-10282110343D

 10 10  0     0  0  0  0  0  0999 V2000
   -0.6067    1.4306    0.0003 S   0  0  0  0  0  0  0  0  0  0  0  0
    2.9168   -0.0097   -0.0005 N   0  0  0  0  0  0  0  0  0  0  0  0
   -0.4633   -1.1346    0.0004 C   0  0  0  0  0  0  0  0  0  0  0  0
    0.3260   -0.0056    0.0006 C   0  0  0  0  0  0  0  0  0  0  0  0
   -1.8522   -0.8164   -0.0003 C   0  0  0  0  0  0  0  0  0  0  0  0
   -2.0714    0.5435   -0.0004 C   0  0  0  0  0  0  0  0  0  0  0  0
    1.7507   -0.0078    0.0000 C   0  0  0  0  0  0  0  0  0  0  0  0
   -0.0733   -2.1452    0.0003 H   0  0  0  0  0  0  0  0  0  0  0  0
   -2.6499   -1.5477   -0.0008 H   0  0  0  0  0  0  0  0  0  0  0  0
   -3.0216    1.0586   -0.0008 H   0  0  0  0  0  0  0  0  0  0  0  0
  1  4  1  0  0  0  0
  1  6  1  0  0  0  0
  2  7  3  0  0  0  0
  3  4  2  0  0  0  0
  3  5  1  0  0  0  0
  3  8  1  0  0  0  0
  4  7  1  0  0  0  0
  5  6  2  0  0  0  0
  5  9  1  0  0  0  0
  6 10  1  0  0  0  0
M  END
> <PUBCHEM_COMPOUND_CID>
66087

> <PUBCHEM_CONFORMER_RMSD>
0.4

> <PUBCHEM_CONFORMER_DIVERSEORDER>
1

> <PUBCHEM_MMFF94_PARTIAL_CHARGES>
10
1 -0.08
10 0.15
2 -0.56
3 -0.15
4 0.06
5 -0.15
6 -0.11
7 0.54
8 0.15
9 0.15

> <PUBCHEM_EFFECTIVE_ROTOR_COUNT>
0

> <PUBCHEM_PHARMACOPHORE_FEATURES>
2
1 2 acceptor
5 1 3 4 5 6 rings

> <PUBCHEM_HEAVY_ATOM_COUNT>
7

> <PUBCHEM_ATOM_DEF_STEREO_COUNT>
0

> <PUBCHEM_ATOM_UDEF_STEREO_COUNT>
0

> <PUBCHEM_BOND_DEF_STEREO_COUNT>
0

> <PUBCHEM_BOND_UDEF_STEREO_COUNT>
0

> <PUBCHEM_ISOTOPIC_ATOM_COUNT>
0

> <PUBCHEM_COMPONENT_COUNT>
1

> <PUBCHEM_CACTVS_TAUTO_COUNT>
1

> <PUBCHEM_CONFORMER_ID>
0001022700000001

> <PUBCHEM_MMFF94_ENERGY>
2.885

> <PUBCHEM_FEATURE_SELFOVERLAP>
10.148

> <PUBCHEM_SHAPE_FINGERPRINT>
10857977 72 18339915034376062816
16714656 1 18411420613436761741
21040471 1 18194682566472017221
23552423 10 18260553277490031838
29004967 10 16343707637991518854
369184 2 18410006637299224866
5460574 1 9295292737568961346

> <PUBCHEM_SHAPE_MULTIPOLES>
142.93
3.19
1.29
0.62
2.03
0.2
0
-0.08
0
-0.53
0
-0.04
0.02
0

> <PUBCHEM_SHAPE_SELFOVERLAP>
280.455

> <PUBCHEM_SHAPE_VOLUME>
86.2

> <PUBCHEM_COORDINATE_TYPE>
2
5
10

$$$$
