13858
  -OEChem-10282110343D

 15 15  0     0  0  0  0  0  0999 V2000
   -2.2837    1.0986   -0.0005 O   0  5  0  0  0  0  0  0  0  0  0  0
   -1.2127    0.4092    0.0004 N   0  3  0  0  0  0  0  0  0  0  0  0
    1.1982    0.2887    0.0001 C   0  0  0  0  0  0  0  0  0  0  0  0
    0.0214    1.0303    0.0004 C   0  0  0  0  0  0  0  0  0  0  0  0
    1.1316   -1.1003    0.0000 C   0  0  0  0  0  0  0  0  0  0  0  0
    2.5177    0.9805   -0.0003 C   0  0  0  0  0  0  0  0  0  0  0  0
   -0.1052   -1.7357   -0.0001 C   0  0  0  0  0  0  0  0  0  0  0  0
   -1.2674   -0.9713    0.0000 C   0  0  0  0  0  0  0  0  0  0  0  0
   -0.0199    2.1104   -0.0010 H   0  0  0  0  0  0  0  0  0  0  0  0
    2.0390   -1.6984   -0.0016 H   0  0  0  0  0  0  0  0  0  0  0  0
    2.4317    2.0057    0.3757 H   0  0  0  0  0  0  0  0  0  0  0  0
    3.2311    0.4591    0.6468 H   0  0  0  0  0  0  0  0  0  0  0  0
    2.9229    1.0175   -1.0165 H   0  0  0  0  0  0  0  0  0  0  0  0
   -0.1649   -2.8194   -0.0008 H   0  0  0  0  0  0  0  0  0  0  0  0
   -2.2636   -1.3890   -0.0005 H   0  0  0  0  0  0  0  0  0  0  0  0
  1  2  1  0  0  0  0
  2  4  1  0  0  0  0
  2  8  2  0  0  0  0
  3  4  2  0  0  0  0
  3  5  1  0  0  0  0
  3  6  1  0  0  0  0
  4  9  1  0  0  0  0
  5  7  2  0  0  0  0
  5 10  1  0  0  0  0
  6 11  1  0  0  0  0
  6 12  1  0  0  0  0
  6 13  1  0  0  0  0
  7  8  1  0  0  0  0
  7 14  1  0  0  0  0
  8 15  1  0  0  0  0
M  CHG  2   1  -1   2   1
M  END
> <PUBCHEM_COMPOUND_CID>
13858

> <PUBCHEM_CONFORMER_RMSD>
0.4

> <PUBCHEM_CONFORMER_DIVERSEORDER>
1

> <PUBCHEM_MMFF94_PARTIAL_CHARGES>
12
1 -0.75
10 0.15
14 0.15
15 0.15
2 0.57
3 -0.14
4 -0.06
5 -0.15
6 0.14
7 -0.15
8 -0.06
9 0.15

> <PUBCHEM_EFFECTIVE_ROTOR_COUNT>
0

> <PUBCHEM_PHARMACOPHORE_FEATURES>
2
1 1 anion
6 2 3 4 5 7 8 rings

> <PUBCHEM_HEAVY_ATOM_COUNT>
8

> <PUBCHEM_ATOM_DEF_STEREO_COUNT>
0

> <PUBCHEM_ATOM_UDEF_STEREO_COUNT>
0

> <PUBCHEM_BOND_DEF_STEREO_COUNT>
0

> <PUBCHEM_BOND_UDEF_STEREO_COUNT>
0

> <PUBCHEM_ISOTOPIC_ATOM_COUNT>
0

> <PUBCHEM_COMPONENT_COUNT>
1

> <PUBCHEM_CACTVS_TAUTO_COUNT>
1

> <PUBCHEM_CONFORMER_ID>
0000362200000001

> <PUBCHEM_MMFF94_ENERGY>
17.3307

> <PUBCHEM_FEATURE_SELFOVERLAP>
10.148

> <PUBCHEM_SHAPE_FINGERPRINT>
16714656 1 18122630714910748694
18185500 45 17258499942106441139
20096714 4 18410856516695521290
21040471 1 18410856572677711236
23552423 10 18188773967573893374
241688 4 16754660786008717650
29004967 10 17902801760234374211

> <PUBCHEM_SHAPE_MULTIPOLES>
153.79
2.67
1.68
0.59
0.72
0.39
0
-1.05
0
-0.37
0
0.04
0.02
0

> <PUBCHEM_SHAPE_SELFOVERLAP>
314.28

> <PUBCHEM_SHAPE_VOLUME>
89.8

> <PUBCHEM_COORDINATE_TYPE>
2
5
10

$$$$
