70483
  -OEChem-10282110343D

 21 21  0     1  0  0  0  0  0999 V2000
    0.9476    0.7076   -0.0265 S   0  0  0  0  0  0  0  0  0  0  0  0
    1.6158    0.7088   -1.3115 O   0  0  0  0  0  0  0  0  0  0  0  0
    1.4740    1.4272    1.1150 O   0  0  0  0  0  0  0  0  0  0  0  0
    0.5977   -0.9798    0.4753 C   0  0  1  0  0  0  0  0  0  0  0  0
   -1.6006    0.0789    0.3252 C   0  0  1  0  0  0  0  0  0  0  0  0
   -0.8459   -1.2241    0.0245 C   0  0  0  0  0  0  0  0  0  0  0  0
   -0.7522    1.2000   -0.2821 C   0  0  0  0  0  0  0  0  0  0  0  0
    1.5803   -1.9856   -0.0912 C   0  0  0  0  0  0  0  0  0  0  0  0
   -3.0168    0.0671   -0.2287 C   0  0  0  0  0  0  0  0  0  0  0  0
    0.6431   -0.9909    1.5709 H   0  0  0  0  0  0  0  0  0  0  0  0
   -1.6464    0.2159    1.4137 H   0  0  0  0  0  0  0  0  0  0  0  0
   -1.2854   -2.0759    0.5545 H   0  0  0  0  0  0  0  0  0  0  0  0
   -0.8840   -1.4432   -1.0503 H   0  0  0  0  0  0  0  0  0  0  0  0
   -0.9110    1.2908   -1.3612 H   0  0  0  0  0  0  0  0  0  0  0  0
   -0.9298    2.1637    0.2010 H   0  0  0  0  0  0  0  0  0  0  0  0
    2.6031   -1.7426    0.2149 H   0  0  0  0  0  0  0  0  0  0  0  0
    1.3483   -2.9943    0.2653 H   0  0  0  0  0  0  0  0  0  0  0  0
    1.5571   -2.0020   -1.1859 H   0  0  0  0  0  0  0  0  0  0  0  0
   -3.0213   -0.0768   -1.3145 H   0  0  0  0  0  0  0  0  0  0  0  0
   -3.6007   -0.7426    0.2210 H   0  0  0  0  0  0  0  0  0  0  0  0
   -3.5246    1.0124   -0.0108 H   0  0  0  0  0  0  0  0  0  0  0  0
  1  2  2  0  0  0  0
  1  3  2  0  0  0  0
  1  4  1  0  0  0  0
  1  7  1  0  0  0  0
  4  6  1  0  0  0  0
  4  8  1  0  0  0  0
  4 10  1  0  0  0  0
  5  6  1  0  0  0  0
  5  7  1  0  0  0  0
  5  9  1  0  0  0  0
  5 11  1  0  0  0  0
  6 12  1  0  0  0  0
  6 13  1  0  0  0  0
  7 14  1  0  0  0  0
  7 15  1  0  0  0  0
  8 16  1  0  0  0  0
  8 17  1  0  0  0  0
  8 18  1  0  0  0  0
  9 19  1  0  0  0  0
  9 20  1  0  0  0  0
  9 21  1  0  0  0  0
M  END
> <PUBCHEM_COMPOUND_CID>
70483

> <PUBCHEM_CONFORMER_RMSD>
0.4

> <PUBCHEM_CONFORMER_DIVERSEORDER>
5
1
2
6
4
3

> <PUBCHEM_MMFF94_PARTIAL_CHARGES>
5
1 1.09
2 -0.65
3 -0.65
4 0.11
7 0.11

> <PUBCHEM_EFFECTIVE_ROTOR_COUNT>
0.8

> <PUBCHEM_PHARMACOPHORE_FEATURES>
3
1 2 acceptor
1 3 acceptor
5 1 4 5 6 7 rings

> <PUBCHEM_HEAVY_ATOM_COUNT>
9

> <PUBCHEM_ATOM_DEF_STEREO_COUNT>
0

> <PUBCHEM_ATOM_UDEF_STEREO_COUNT>
2

> <PUBCHEM_BOND_DEF_STEREO_COUNT>
0

> <PUBCHEM_BOND_UDEF_STEREO_COUNT>
0

> <PUBCHEM_ISOTOPIC_ATOM_COUNT>
0

> <PUBCHEM_COMPONENT_COUNT>
1

> <PUBCHEM_CACTVS_TAUTO_COUNT>
1

> <PUBCHEM_CONFORMER_ID>
0001135300000005

> <PUBCHEM_MMFF94_ENERGY>
9.6052

> <PUBCHEM_FEATURE_SELFOVERLAP>
15.239

> <PUBCHEM_SHAPE_FINGERPRINT>
12423570 1 16521928693107909035
12932764 1 18201722860279791797
137420 1 12778901081554242627
14128692 85 18193566562164614990
16945 1 18410023129825941880
18185500 45 17686064889832244771
20653091 64 18115593638502958139
20711978 78 18200014167074411229
21040471 1 18263645232877731003
23211744 41 17341245235848238592
23235685 24 18187365488329850701
23552423 10 18187087200503749067
241688 4 17972316205241498249
24536 1 17822008713880780777
2748010 2 18049727609115489847
29004967 10 18187367644735671249
5084963 1 18187928322561605049

> <PUBCHEM_SHAPE_MULTIPOLES>
177.33
2.96
1.79
0.91
2.04
0.32
-0.05
0.27
-0.26
-0.97
0.08
-0.34
-0.27
0.09

> <PUBCHEM_SHAPE_SELFOVERLAP>
334.081

> <PUBCHEM_SHAPE_VOLUME>
112.2

> <PUBCHEM_COORDINATE_TYPE>
2
5
10

$$$$
