5362751
  -OEChem-10282110343D

 33 32  0     0  0  0  0  0  0999 V2000
    1.1552   -0.6304    0.1089 C   0  0  0  0  0  0  0  0  0  0  0  0
    2.3081    0.3312   -0.1934 C   0  0  0  0  0  0  0  0  0  0  0  0
    3.6811   -0.2246    0.1907 C   0  0  0  0  0  0  0  0  0  0  0  0
   -0.2158   -0.0846   -0.2982 C   0  0  0  0  0  0  0  0  0  0  0  0
    4.7937    0.7701   -0.1439 C   0  0  0  0  0  0  0  0  0  0  0  0
   -1.3265   -1.0904    0.0158 C   0  0  0  0  0  0  0  0  0  0  0  0
    6.1641    0.2115    0.2054 C   0  0  0  0  0  0  0  0  0  0  0  0
   -2.6682   -0.5698   -0.4109 C   0  0  0  0  0  0  0  0  0  0  0  0
   -3.7080   -0.4163    0.4222 C   0  0  0  0  0  0  0  0  0  0  0  0
   -5.0515    0.0946   -0.0066 C   0  0  0  0  0  0  0  0  0  0  0  0
   -5.1320    1.6087    0.1101 C   0  0  0  0  0  0  0  0  0  0  0  0
    1.1510   -0.8567    1.1824 H   0  0  0  0  0  0  0  0  0  0  0  0
    1.3354   -1.5782   -0.4135 H   0  0  0  0  0  0  0  0  0  0  0  0
    2.1364    1.2741    0.3406 H   0  0  0  0  0  0  0  0  0  0  0  0
    2.3020    0.5689   -1.2645 H   0  0  0  0  0  0  0  0  0  0  0  0
   -0.4058    0.8575    0.2310 H   0  0  0  0  0  0  0  0  0  0  0  0
   -0.2115    0.1450   -1.3712 H   0  0  0  0  0  0  0  0  0  0  0  0
    3.6983   -0.4519    1.2634 H   0  0  0  0  0  0  0  0  0  0  0  0
    3.8556   -1.1668   -0.3427 H   0  0  0  0  0  0  0  0  0  0  0  0
    4.7678    1.0127   -1.2126 H   0  0  0  0  0  0  0  0  0  0  0  0
    4.6346    1.7053    0.4053 H   0  0  0  0  0  0  0  0  0  0  0  0
   -1.3208   -1.3242    1.0873 H   0  0  0  0  0  0  0  0  0  0  0  0
   -1.1357   -2.0296   -0.5172 H   0  0  0  0  0  0  0  0  0  0  0  0
    6.3676   -0.7072   -0.3541 H   0  0  0  0  0  0  0  0  0  0  0  0
    6.9439    0.9389   -0.0408 H   0  0  0  0  0  0  0  0  0  0  0  0
    6.2348   -0.0139    1.2742 H   0  0  0  0  0  0  0  0  0  0  0  0
   -2.7908   -0.3290   -1.4642 H   0  0  0  0  0  0  0  0  0  0  0  0
   -3.5898   -0.6530    1.4766 H   0  0  0  0  0  0  0  0  0  0  0  0
   -5.8260   -0.3714    0.6130 H   0  0  0  0  0  0  0  0  0  0  0  0
   -5.2593   -0.2014   -1.0419 H   0  0  0  0  0  0  0  0  0  0  0  0
   -6.1252    1.9578   -0.1903 H   0  0  0  0  0  0  0  0  0  0  0  0
   -4.9563    1.9362    1.1405 H   0  0  0  0  0  0  0  0  0  0  0  0
   -4.3936    2.0980   -0.5340 H   0  0  0  0  0  0  0  0  0  0  0  0
  1  2  1  0  0  0  0
  1  4  1  0  0  0  0
  1 12  1  0  0  0  0
  1 13  1  0  0  0  0
  2  3  1  0  0  0  0
  2 14  1  0  0  0  0
  2 15  1  0  0  0  0
  3  5  1  0  0  0  0
  3 18  1  0  0  0  0
  3 19  1  0  0  0  0
  4  6  1  0  0  0  0
  4 16  1  0  0  0  0
  4 17  1  0  0  0  0
  5  7  1  0  0  0  0
  5 20  1  0  0  0  0
  5 21  1  0  0  0  0
  6  8  1  0  0  0  0
  6 22  1  0  0  0  0
  6 23  1  0  0  0  0
  7 24  1  0  0  0  0
  7 25  1  0  0  0  0
  7 26  1  0  0  0  0
  8  9  2  0  0  0  0
  8 27  1  0  0  0  0
  9 10  1  0  0  0  0
  9 28  1  0  0  0  0
 10 11  1  0  0  0  0
 10 29  1  0  0  0  0
 10 30  1  0  0  0  0
 11 31  1  0  0  0  0
 11 32  1  0  0  0  0
 11 33  1  0  0  0  0
M  END
> <PUBCHEM_COMPOUND_CID>
5362751

> <PUBCHEM_CONFORMER_RMSD>
0.8

> <PUBCHEM_CONFORMER_DIVERSEORDER>
1
34
39
50
17
30
9
31
57
14
38
3
61
20
26
60
36
51
40
7
5
55
54
16
43
6
24
13
8
53
62
27
56
41
59
10
42
4
47
2
35
25
22
33
37
23
32
15
12
46
18
19
48
11
28
21
29
49
52
45
44
58

> <PUBCHEM_MMFF94_PARTIAL_CHARGES>
6
10 0.14
27 0.15
28 0.15
6 0.14
8 -0.29
9 -0.29

> <PUBCHEM_EFFECTIVE_ROTOR_COUNT>
7

> <PUBCHEM_PHARMACOPHORE_FEATURES>
2
1 11 hydrophobe
1 7 hydrophobe

> <PUBCHEM_HEAVY_ATOM_COUNT>
11

> <PUBCHEM_ATOM_DEF_STEREO_COUNT>
0

> <PUBCHEM_ATOM_UDEF_STEREO_COUNT>
0

> <PUBCHEM_BOND_DEF_STEREO_COUNT>
1

> <PUBCHEM_BOND_UDEF_STEREO_COUNT>
0

> <PUBCHEM_ISOTOPIC_ATOM_COUNT>
0

> <PUBCHEM_COMPONENT_COUNT>
1

> <PUBCHEM_CACTVS_TAUTO_COUNT>
1

> <PUBCHEM_CONFORMER_ID>
0051D43F00000001

> <PUBCHEM_MMFF94_ENERGY>
-3.9408

> <PUBCHEM_FEATURE_SELFOVERLAP>
10.149

> <PUBCHEM_SHAPE_FINGERPRINT>
100836 57 18410298012128131941
11287383 113 8070022264285300494
11401426 45 17418093239024193374
114248 4 10735879473782941126
117890 112 18341895182019715792
12091667 2 18342175591786547223
12714333 28 16630527332002945202
13690532 89 9943807789538521463
13740256 8 8358248246685338397
14123238 8 10953453029668738818
1420 363 11963390734821640784
14251718 22 10447927274173224960
14252887 29 14996278089803734114
14350574 20 10231750093907519495
14455015 7 13334731310870757256
14729087 3 18201714055407197560
15048467 5 18410573985241381776
15242439 84 16702020898340966754
15501527 16 18411983546653613937
15501527 24 12175619590254059040
17834072 8 17203889669092430808
17834076 25 18342175578859265406
18342897 14 18334575750082373084
187816 3 14405187274420277199
200 152 11240003351631352159
20281389 69 18408601461365528864
20645477 56 18272932726383611895
20645477 70 16486706770463127726
20724930 69 18409730664149460987
20767249 13 12103850055546531174
20767249 213 18410855460898431533
23218964 4 18343019986999846822
23402539 116 18201714076354123597
23402655 69 17704072863413250999
270888 7 18126288528964061769
300161 21 17775279469959017150
42788 4 18410575097558536806
49783359 22 12324243879905603769
57483677 66 9727639392797635836
7062679 6 18408610244521012229

> <PUBCHEM_SHAPE_MULTIPOLES>
226.37
14.77
1.12
0.67
6.52
0.26
0
5.15
1.07
-1.13
0.02
-0.05
-0.01
-0.14

> <PUBCHEM_SHAPE_SELFOVERLAP>
401.231

> <PUBCHEM_SHAPE_VOLUME>
148.2

> <PUBCHEM_COORDINATE_TYPE>
2
5
10

$$$$
