24834
  -OEChem-10282110343D

 21 21  0     0  0  0  0  0  0999 V2000
    2.3027    0.3758   -0.3762 O   0  0  0  0  0  0  0  0  0  0  0  0
   -3.9001   -0.9417    0.1544 O   0  0  0  0  0  0  0  0  0  0  0  0
    0.9504    0.3127   -0.2358 C   0  0  0  0  0  0  0  0  0  0  0  0
    3.0550   -0.7529    0.0663 C   0  0  0  0  0  0  0  0  0  0  0  0
    0.2150    1.4806   -0.0336 C   0  0  0  0  0  0  0  0  0  0  0  0
    0.2997   -0.9198   -0.2954 C   0  0  0  0  0  0  0  0  0  0  0  0
   -1.8217    0.1840    0.0495 C   0  0  0  0  0  0  0  0  0  0  0  0
   -1.1711    1.4163    0.1091 C   0  0  0  0  0  0  0  0  0  0  0  0
   -1.0864   -0.9841   -0.1527 C   0  0  0  0  0  0  0  0  0  0  0  0
    4.4235   -0.2876    0.5165 C   0  0  0  0  0  0  0  0  0  0  0  0
   -3.2669    0.1167    0.1980 C   0  0  0  0  0  0  0  0  0  0  0  0
    2.5796   -1.2508    0.9207 H   0  0  0  0  0  0  0  0  0  0  0  0
    3.1588   -1.4632   -0.7613 H   0  0  0  0  0  0  0  0  0  0  0  0
    0.7165    2.4433    0.0135 H   0  0  0  0  0  0  0  0  0  0  0  0
    0.8313   -1.8488   -0.4790 H   0  0  0  0  0  0  0  0  0  0  0  0
   -1.7302    2.3352    0.2661 H   0  0  0  0  0  0  0  0  0  0  0  0
   -1.5734   -1.9542   -0.2086 H   0  0  0  0  0  0  0  0  0  0  0  0
    5.0328   -1.1310    0.8533 H   0  0  0  0  0  0  0  0  0  0  0  0
    4.9458    0.2208   -0.3007 H   0  0  0  0  0  0  0  0  0  0  0  0
    4.3355    0.4343    1.3352 H   0  0  0  0  0  0  0  0  0  0  0  0
   -3.7935    1.0733    0.3555 H   0  0  0  0  0  0  0  0  0  0  0  0
  1  3  1  0  0  0  0
  1  4  1  0  0  0  0
  2 11  2  0  0  0  0
  3  5  2  0  0  0  0
  3  6  1  0  0  0  0
  4 10  1  0  0  0  0
  4 12  1  0  0  0  0
  4 13  1  0  0  0  0
  5  8  1  0  0  0  0
  5 14  1  0  0  0  0
  6  9  2  0  0  0  0
  6 15  1  0  0  0  0
  7  8  2  0  0  0  0
  7  9  1  0  0  0  0
  7 11  1  0  0  0  0
  8 16  1  0  0  0  0
  9 17  1  0  0  0  0
 10 18  1  0  0  0  0
 10 19  1  0  0  0  0
 10 20  1  0  0  0  0
 11 21  1  0  0  0  0
M  END
> <PUBCHEM_COMPOUND_CID>
24834

> <PUBCHEM_CONFORMER_RMSD>
0.6

> <PUBCHEM_CONFORMER_DIVERSEORDER>
1
5
6
4
3
2

> <PUBCHEM_MMFF94_PARTIAL_CHARGES>
15
1 -0.36
11 0.42
14 0.15
15 0.15
16 0.15
17 0.15
2 -0.57
21 0.06
3 0.08
4 0.28
5 -0.15
6 -0.15
7 0.09
8 -0.15
9 -0.15

> <PUBCHEM_EFFECTIVE_ROTOR_COUNT>
3

> <PUBCHEM_PHARMACOPHORE_FEATURES>
3
1 1 acceptor
1 2 acceptor
6 3 5 6 7 8 9 rings

> <PUBCHEM_HEAVY_ATOM_COUNT>
11

> <PUBCHEM_ATOM_DEF_STEREO_COUNT>
0

> <PUBCHEM_ATOM_UDEF_STEREO_COUNT>
0

> <PUBCHEM_BOND_DEF_STEREO_COUNT>
0

> <PUBCHEM_BOND_UDEF_STEREO_COUNT>
0

> <PUBCHEM_ISOTOPIC_ATOM_COUNT>
0

> <PUBCHEM_COMPONENT_COUNT>
1

> <PUBCHEM_CACTVS_TAUTO_COUNT>
1

> <PUBCHEM_CONFORMER_ID>
0000610200000001

> <PUBCHEM_MMFF94_ENERGY>
30.4855

> <PUBCHEM_FEATURE_SELFOVERLAP>
15.223

> <PUBCHEM_SHAPE_FINGERPRINT>
10130415 120 18335142011513602024
10219947 1 18343305876807350951
11062470 55 13398632748875458394
11401426 45 18341887485638612589
11543360 7 15575009423691761991
12032990 46 18411426098094369415
12932764 1 16558454297974313070
13690532 89 18334293175588844323
14252887 29 18201450163710150238
14325111 11 18339924814306804300
16945 1 18271537441458450533
19026448 4 15554459469864268893
193761 8 17691688209024375143
20510252 161 18130507423012688480
20871998 184 18201435835609119156
20871998 22 18271257018585346655
21119208 17 9943805603911883906
21501925 9 18411417336350308616
23402539 116 18272922817672455759
23402655 69 18196918982710355157
23463225 33 18408605838105670734
23552423 10 17974856373428024108
369184 2 16702014245394225860
43471831 8 18262798441547947298
53812654 25 18201157749256155365

> <PUBCHEM_SHAPE_MULTIPOLES>
214.64
6.46
1.32
0.66
3.12
0.28
0.01
-1.75
1.22
-0.38
-0.02
0.12
0
-0.05

> <PUBCHEM_SHAPE_SELFOVERLAP>
439.5

> <PUBCHEM_SHAPE_VOLUME>
125

> <PUBCHEM_COORDINATE_TYPE>
2
5
10

$$$$
