66080
  -OEChem-10282110333D

 19 18  0     0  0  0  0  0  0999 V2000
    1.2256    0.0787    0.0121 C   0  0  0  0  0  0  0  0  0  0  0  0
    0.0245    0.6447   -0.2171 C   0  0  0  0  0  0  0  0  0  0  0  0
   -1.2859    0.0328   -0.0826 C   0  0  0  0  0  0  0  0  0  0  0  0
    2.4901    0.8684   -0.1998 C   0  0  0  0  0  0  0  0  0  0  0  0
    1.4466   -1.3257    0.5029 C   0  0  0  0  0  0  0  0  0  0  0  0
   -2.3657    0.9317    0.4452 C   0  0  0  0  0  0  0  0  0  0  0  0
   -1.5353   -1.2306   -0.4608 C   0  0  0  0  0  0  0  0  0  0  0  0
   -0.0031    1.6840   -0.5425 H   0  0  0  0  0  0  0  0  0  0  0  0
    3.1341    0.3616   -0.9260 H   0  0  0  0  0  0  0  0  0  0  0  0
    3.0388    0.9687    0.7425 H   0  0  0  0  0  0  0  0  0  0  0  0
    2.2942    1.8771   -0.5786 H   0  0  0  0  0  0  0  0  0  0  0  0
    2.2832   -1.3495    1.2109 H   0  0  0  0  0  0  0  0  0  0  0  0
    1.6956   -1.9870   -0.3328 H   0  0  0  0  0  0  0  0  0  0  0  0
    0.5908   -1.7346    1.0459 H   0  0  0  0  0  0  0  0  0  0  0  0
   -2.5049    1.7985   -0.2100 H   0  0  0  0  0  0  0  0  0  0  0  0
   -3.3293    0.4157    0.5178 H   0  0  0  0  0  0  0  0  0  0  0  0
   -2.1095    1.2915    1.4478 H   0  0  0  0  0  0  0  0  0  0  0  0
   -2.5322   -1.6507   -0.3659 H   0  0  0  0  0  0  0  0  0  0  0  0
   -0.7853   -1.8751   -0.9052 H   0  0  0  0  0  0  0  0  0  0  0  0
  1  2  2  0  0  0  0
  1  4  1  0  0  0  0
  1  5  1  0  0  0  0
  2  3  1  0  0  0  0
  2  8  1  0  0  0  0
  3  6  1  0  0  0  0
  3  7  2  0  0  0  0
  4  9  1  0  0  0  0
  4 10  1  0  0  0  0
  4 11  1  0  0  0  0
  5 12  1  0  0  0  0
  5 13  1  0  0  0  0
  5 14  1  0  0  0  0
  6 15  1  0  0  0  0
  6 16  1  0  0  0  0
  6 17  1  0  0  0  0
  7 18  1  0  0  0  0
  7 19  1  0  0  0  0
M  END
> <PUBCHEM_COMPOUND_CID>
66080

> <PUBCHEM_CONFORMER_RMSD>
0.4

> <PUBCHEM_CONFORMER_DIVERSEORDER>
1
2

> <PUBCHEM_MMFF94_PARTIAL_CHARGES>
10
1 -0.28
18 0.15
19 0.15
2 -0.15
3 -0.14
4 0.14
5 0.14
6 0.14
7 -0.3
8 0.15

> <PUBCHEM_EFFECTIVE_ROTOR_COUNT>
1

> <PUBCHEM_PHARMACOPHORE_FEATURES>
1
3 1 4 5 hydrophobe

> <PUBCHEM_HEAVY_ATOM_COUNT>
7

> <PUBCHEM_ATOM_DEF_STEREO_COUNT>
0

> <PUBCHEM_ATOM_UDEF_STEREO_COUNT>
0

> <PUBCHEM_BOND_DEF_STEREO_COUNT>
0

> <PUBCHEM_BOND_UDEF_STEREO_COUNT>
0

> <PUBCHEM_ISOTOPIC_ATOM_COUNT>
0

> <PUBCHEM_COMPONENT_COUNT>
1

> <PUBCHEM_CACTVS_TAUTO_COUNT>
1

> <PUBCHEM_CONFORMER_ID>
0001022000000001

> <PUBCHEM_MMFF94_ENERGY>
13.1051

> <PUBCHEM_FEATURE_SELFOVERLAP>
5.074

> <PUBCHEM_SHAPE_FINGERPRINT>
12932741 1 14907890604672497549
14390081 3 18202280337843783760
18185500 45 18409442622077954007
20096714 4 18411702075496967433
21040471 1 18200876175669263433
23552423 10 18334575728718514358
24536 1 17774997968716383636
29004967 10 17167868547195900840
5460574 1 9367351426733976461

> <PUBCHEM_SHAPE_MULTIPOLES>
144.06
3.39
1.38
0.72
0.19
0.35
-0.01
-0.73
-0.16
0.01
-0.05
-0.05
0.05
-0.46

> <PUBCHEM_SHAPE_SELFOVERLAP>
263.543

> <PUBCHEM_SHAPE_VOLUME>
93.1

> <PUBCHEM_COORDINATE_TYPE>
2
5
10

$$$$
